src/test/resources/netPositionsData/20190618_0030_2D2_D21.uct
##C 2007.05.01

##N
##ZD2
D2U SL11 SHADOW       1 2 400.00 1000.00   10.00   10.00   10.00  647.06   20.00
D2I_SO21 SHADOW       1 2 400.00  200.00   10.00   10.00   10.00  872.33   20.00
##ZXX
X2U_SL11 CORE         1 0 400.00  500.00   10.00   10.00   10.00   20.00   20.00
X2I_SO21 OUT          1 0 400.00   50.00   10.00   10.00   10.00   20.00   20.00
##L
D2U SL11 X2U_SL11 1 0  20.00  20.00   20.00   5000
D2I_SO21 X2I_SO21 1 0  20.00  20.00   20.00   5000
##T
##R
